Version 4.1
SHEET 1 880 888
WIRE -96 0 -176 0
WIRE 16 0 -96 0
WIRE 192 0 16 0
WIRE 320 0 192 0
WIRE 560 0 448 0
WIRE 656 0 560 0
WIRE 704 0 656 0
WIRE 560 48 560 0
WIRE -176 112 -176 0
WIRE 16 128 16 0
WIRE 192 128 192 0
WIRE 704 128 704 0
WIRE 384 160 384 48
WIRE 560 160 560 128
WIRE 560 160 384 160
WIRE 560 208 560 160
WIRE 384 224 384 160
WIRE -176 352 -176 192
WIRE 16 352 16 192
WIRE 16 352 -176 352
WIRE 192 352 192 192
WIRE 192 352 16 352
WIRE 384 352 384 288
WIRE 384 352 192 352
WIRE 560 352 560 288
WIRE 560 352 384 352
WIRE 704 352 704 192
WIRE 704 352 560 352
WIRE 384 416 384 352
FLAG 384 416 0
FLAG -96 0 V_In
FLAG 656 0 V_Out
SYMBOL res 544 32 R0
SYMATTR InstName R1
SYMATTR Value {R}
SYMBOL res 544 192 R0
SYMATTR InstName R2
SYMATTR Value 2k
SYMBOL voltage -176 96 R0
WINDOW 123 0 0 Left 0
WINDOW 39 0 0 Left 0
SYMATTR InstName V1
SYMATTR Value -40V
SYMBOL LM337 384 0 R0
SYMATTR InstName U1
SYMBOL cap 0 128 R0
SYMATTR InstName C1
SYMATTR Value 1m
SYMBOL cap 176 128 R0
SYMATTR InstName C2
SYMATTR Value 100µ
SYMBOL cap 368 224 R0
SYMATTR InstName C3
SYMATTR Value 10µ
SYMBOL cap 688 128 R0
SYMATTR InstName C4
SYMATTR Value 1µ
TEXT -208 416 Left 2 !.step param R 1K 100k
TEXT -208 440 Left 2 !.op
